  Page 1                                    Wed Aug  5 15:43:17 2020

  ******************************************************************
  *                           E P A N E T                          *
  *                   Hydraulic and Water Quality                  *
  *                   Analysis for Pipe Networks                   *
  *                         Version 2.00.12                        *
  ******************************************************************
  
  Analysis begun Wed Aug  5 15:43:17 2020

   
  Hydraulic Status:
  -----------------------------------------------------------------------
     0:00:00: Balancing the network:
              Trial  1: relative flow change = 1.012818
              Trial  2: relative flow change = 2.225697
              CV 1033 switched from open to closed
              CV 1154 switched from open to closed
              CV 1196 switched from open to closed
              CV 1210 switched from open to closed
              CV 1677 switched from open to closed
              Trial  3: relative flow change = 8.511558
              Trial  4: relative flow change = 1.196800
              CV 1154 switched from closed to open
              CV 1210 switched from closed to open
              Trial  5: relative flow change = 0.533776
              Trial  6: relative flow change = 0.320381
              CV 1154 switched from open to closed
              CV 1210 switched from open to closed
              Trial  7: relative flow change = 0.186499
              Trial  8: relative flow change = 0.000483
              CV 1154 switched from closed to open
              CV 1210 switched from closed to open
              Trial  9: relative flow change = 0.360300
              Trial 10: relative flow change = 0.313625
              CV 1154 switched from open to closed
              CV 1210 switched from open to closed
              Trial 11: relative flow change = 0.184572
              Trial 12: relative flow change = 0.000483
              CV 1154 switched from closed to open
              CV 1210 switched from closed to open
              Trial 13: relative flow change = 0.360300
              Trial 14: relative flow change = 0.313625
              Trial 15: relative flow change = 0.072234
              Trial 16: relative flow change = 0.004202
              Trial 17: relative flow change = 0.000335
              CV 1196 switched from closed to open
              CV 1210 switched from open to closed
              Trial 18: relative flow change = 0.041612
              Trial 19: relative flow change = 0.003381
              Trial 20: relative flow change = 0.000019
     0:00:00: Balanced after 20 trials
     0:00:00: Reservoir O is emptying
     0:00:00: Tank C is emptying at 1.84 m
     0:00:00: Tank A is filling at 3.12 m
     0:00:00: Tank D is filling at 1.94 m
     0:00:00: Tank B is emptying at 3.37 m
     0:00:00: Tank E is filling at 2.47 m
     0:00:00: Tank F is emptying at 1.96 m
     0:00:00: CV 1033 closed
     0:00:00: CV 1210 closed
     0:00:00: CV 1677 closed
     0:00:00: Pump 2A open
     0:00:00: Pump 6D open
     0:00:00: Pump 3A open
   
     1:00:00: Balancing the network:
              Trial  1: relative flow change = 0.490255
              Trial  2: relative flow change = 0.099673
              Trial  3: relative flow change = 0.007001
              Trial  4: relative flow change = 0.000016
     1:00:00: Balanced after 4 trials
     1:00:00: Tank A is emptying at 3.29 m
     1:00:00: Tank D is emptying at 1.97 m
     1:00:00: Tank B is filling at 3.02 m
     1:00:00: Pump 4B changed from closed to open
     1:00:00: Pump 1A changed from closed to open
   
     2:00:00: Balancing the network:
              Trial  1: relative flow change = 0.337783
              Trial  2: relative flow change = 0.037175
              Trial  3: relative flow change = 0.000217
     2:00:00: Balanced after 3 trials
     2:00:00: Pump 1A changed from open to closed
   
     3:00:00: Balancing the network:
              Trial  1: relative flow change = 0.022925
              Trial  2: relative flow change = 0.000053
     3:00:00: Balanced after 2 trials
   
     3:38:30: Balancing the network:
              Trial  1: relative flow change = 0.004925
              Trial  2: relative flow change = 0.000019
              CV 1783 switched from open to closed
              Trial  3: relative flow change = 0.016040
              Trial  4: relative flow change = 0.000000
     3:38:30: Balanced after 4 trials
     3:38:30: Tank D is filling at 1.84 m
     3:38:30: Tank E is emptying at 2.69 m
     3:38:30: CV 1783 changed from open to temporarily closed
   
     4:00:00: Balancing the network:
              Trial  1: relative flow change = 0.268916
              Trial  2: relative flow change = 0.000832
              CV 1783 switched from closed to open
              Trial  3: relative flow change = 0.937053
              Trial  4: relative flow change = 1.024154
              Trial  5: relative flow change = 0.890901
              Trial  6: relative flow change = 0.694455
              Trial  7: relative flow change = 0.469368
              Trial  8: relative flow change = 0.275193
              Trial  9: relative flow change = 0.144548
              Trial 10: relative flow change = 0.070460
              Trial 11: relative flow change = 0.032060
              Trial 12: relative flow change = 0.012583
              Trial 13: relative flow change = 0.003125
              Trial 14: relative flow change = 0.000233
     4:00:00: Balanced after 14 trials
     4:00:00: Tank A is filling at 2.91 m
     4:00:00: Tank B is emptying at 3.52 m
     4:00:00: Tank E is filling at 2.64 m
     4:00:00: CV 1783 changed from temporarily closed to open
     4:00:00: Pump 4B changed from open to closed
   
     4:35:21: Balancing the network:
              Trial  1: relative flow change = 0.000844
              CV 1783 switched from open to closed
              Trial  2: relative flow change = 0.017608
              Trial  3: relative flow change = 0.000000
     4:35:21: Balanced after 3 trials
     4:35:21: Tank E is emptying at 2.69 m
     4:35:21: CV 1783 changed from open to temporarily closed
   
     5:00:00: Balancing the network:
              Trial  1: relative flow change = 0.012706
              Trial  2: relative flow change = 0.000005
              CV 1783 switched from closed to open
              Trial  3: relative flow change = 0.941236
              Trial  4: relative flow change = 1.033452
              Trial  5: relative flow change = 0.906321
              Trial  6: relative flow change = 0.715074
              Trial  7: relative flow change = 0.490146
              Trial  8: relative flow change = 0.290943
              Trial  9: relative flow change = 0.154144
              Trial 10: relative flow change = 0.075581
              Trial 11: relative flow change = 0.034635
              Trial 12: relative flow change = 0.013856
              Trial 13: relative flow change = 0.003647
              Trial 14: relative flow change = 0.000313
     5:00:00: Balanced after 14 trials
     5:00:00: Tank E is filling at 2.64 m
     5:00:00: CV 1783 changed from temporarily closed to open
   
     5:30:02: Balancing the network:
              Trial  1: relative flow change = 0.000775
              CV 1783 switched from open to closed
              Trial  2: relative flow change = 0.017796
              Trial  3: relative flow change = 0.000000
     5:30:02: Balanced after 3 trials
     5:30:02: Tank E is emptying at 2.69 m
     5:30:02: CV 1783 changed from open to temporarily closed
   
     6:00:00: Balancing the network:
              Trial  1: relative flow change = 0.275438
              Trial  2: relative flow change = 0.033706
              CV 1783 switched from closed to open
              Trial  3: relative flow change = 0.937492
              Trial  4: relative flow change = 1.024770
              Trial  5: relative flow change = 0.891886
              Trial  6: relative flow change = 0.695761
              Trial  7: relative flow change = 0.470680
              Trial  8: relative flow change = 0.276201
              Trial  9: relative flow change = 0.145210
              Trial 10: relative flow change = 0.070910
              Trial 11: relative flow change = 0.032460
              Trial 12: relative flow change = 0.013028
              Trial 13: relative flow change = 0.003474
              Trial 14: relative flow change = 0.000308
     6:00:00: Balanced after 14 trials
     6:00:00: Tank A is emptying at 3.26 m
     6:00:00: Tank B is filling at 2.82 m
     6:00:00: Tank E is filling at 2.64 m
     6:00:00: Tank F is filling at 1.68 m
     6:00:00: CV 1783 changed from temporarily closed to open
     6:00:00: Pump 7F changed from closed to open
     6:00:00: Pump 4B changed from closed to open
   
     7:00:00: Balancing the network:
              Trial  1: relative flow change = 0.322944
              Trial  2: relative flow change = 0.037388
              Trial  3: relative flow change = 0.004453
              Trial  4: relative flow change = 0.000059
     7:00:00: Balanced after 4 trials
     7:00:00: Tank C is filling at 0.90 m
     7:00:00: Tank A is filling at 3.15 m
     7:00:00: Tank B is emptying at 3.16 m
     7:00:00: Tank F is emptying at 2.07 m
     7:00:00: Pump 7F changed from open to closed
     7:00:00: Pump 5C changed from closed to open
     7:00:00: Pump 4B changed from open to closed
   
     7:24:52: Balancing the network:
              Trial  1: relative flow change = 0.000534
              CV 1783 switched from open to closed
              Trial  2: relative flow change = 0.017111
              Trial  3: relative flow change = 0.000000
     7:24:52: Balanced after 3 trials
     7:24:52: Tank E is emptying at 2.69 m
     7:24:52: CV 1783 changed from open to temporarily closed
   
     7:37:42: Balancing the network:
              Trial  1: relative flow change = 0.000265
              CV 1196 switched from open to closed
              CV 1783 switched from closed to open
              Trial  2: relative flow change = 0.948378
              Trial  3: relative flow change = 1.041694
              Trial  4: relative flow change = 0.920197
              Trial  5: relative flow change = 0.734060
              Trial  6: relative flow change = 0.509802
              Trial  7: relative flow change = 0.306200
              Trial  8: relative flow change = 0.163582
              Trial  9: relative flow change = 0.080646
              Trial 10: relative flow change = 0.037159
              Trial 11: relative flow change = 0.015061
              Trial 12: relative flow change = 0.004123
              Trial 13: relative flow change = 0.000389
     7:37:42: Balanced after 13 trials
     7:37:42: Tank D is emptying at 2.11 m
     7:37:42: Tank E is filling at 2.67 m
     7:37:42: CV 1196 changed from open to temporarily closed
     7:37:42: CV 1783 changed from temporarily closed to open
   
     7:50:26: Balancing the network:
              Trial  1: relative flow change = 0.000403
              CV 1196 switched from closed to open
              CV 1783 switched from open to closed
              Trial  2: relative flow change = 0.256307
              Trial  3: relative flow change = 0.185895
              CV 1154 switched from open to closed
              CV 1196 switched from open to closed
              CV 1210 switched from closed to open
              Trial  4: relative flow change = 0.135481
              Trial  5: relative flow change = 0.000101
              CV 1154 switched from closed to open
              Trial  6: relative flow change = 0.429518
              Trial  7: relative flow change = 0.397297
              CV 1154 switched from open to closed
              CV 1210 switched from open to closed
              Trial  8: relative flow change = 0.238032
              Trial  9: relative flow change = 0.000189
              CV 1154 switched from closed to open
              CV 1210 switched from closed to open
              Trial 10: relative flow change = 0.373197
              Trial 11: relative flow change = 0.330679
              Trial 12: relative flow change = 0.080580
              Trial 13: relative flow change = 0.005384
              Trial 14: relative flow change = 0.000397
              CV 1196 switched from closed to open
              CV 1210 switched from open to closed
              Trial 15: relative flow change = 0.041864
              Trial 16: relative flow change = 0.003366
              Trial 17: relative flow change = 0.000020
     7:50:26: Balanced after 17 trials
     7:50:26: Tank D is filling at 2.06 m
     7:50:26: Tank E is emptying at 2.69 m
     7:50:26: CV 1196 changed from temporarily closed to open
     7:50:26: CV 1783 changed from open to temporarily closed
   
     8:00:00: Balancing the network:
              Trial  1: relative flow change = 0.266511
              Trial  2: relative flow change = 0.029352
              CV 1783 switched from closed to open
              Trial  3: relative flow change = 0.941011
              Trial  4: relative flow change = 1.032788
              Trial  5: relative flow change = 0.905213
              Trial  6: relative flow change = 0.713582
              Trial  7: relative flow change = 0.488640
              Trial  8: relative flow change = 0.289824
              Trial  9: relative flow change = 0.153530
              Trial 10: relative flow change = 0.075391
              Trial 11: relative flow change = 0.034789
              Trial 12: relative flow change = 0.014300
              Trial 13: relative flow change = 0.004112
              Trial 14: relative flow change = 0.000438
     8:00:00: Balanced after 14 trials
     8:00:00: Tank A is emptying at 3.32 m
     8:00:00: Tank B is filling at 2.84 m
     8:00:00: Tank E is filling at 2.67 m
     8:00:00: CV 1783 changed from temporarily closed to open
     8:00:00: Pump 4B changed from closed to open
   
     8:08:48: Balancing the network:
              Trial  1: relative flow change = 0.001585
              Trial  2: relative flow change = 0.000002
              CV 1783 switched from open to closed
              Trial  3: relative flow change = 0.015888
              Trial  4: relative flow change = 0.000000
     8:08:48: Balanced after 4 trials
     8:08:48: Tank E is emptying at 2.69 m
     8:08:48: CV 1783 changed from open to temporarily closed
   
     8:13:59: Balancing the network:
              Trial  1: relative flow change = 0.000943
              CV 1196 switched from open to closed
              CV 1783 switched from closed to open
              Trial  2: relative flow change = 0.947428
              Trial  3: relative flow change = 1.039886
              Trial  4: relative flow change = 0.917137
              Trial  5: relative flow change = 0.729842
              Trial  6: relative flow change = 0.505401
              Trial  7: relative flow change = 0.302776
              Trial  8: relative flow change = 0.161499
              Trial  9: relative flow change = 0.079616
              Trial 10: relative flow change = 0.036811
              Trial 11: relative flow change = 0.015144
              Trial 12: relative flow change = 0.004357
              Trial 13: relative flow change = 0.000464
     8:13:59: Balanced after 13 trials
     8:13:59: Tank D is emptying at 2.11 m
     8:13:59: Tank E is filling at 2.68 m
     8:13:59: CV 1196 changed from open to temporarily closed
     8:13:59: CV 1783 changed from temporarily closed to open
   
     8:18:22: Balancing the network:
              Trial  1: relative flow change = 0.000675
              CV 1196 switched from closed to open
              CV 1783 switched from open to closed
              Trial  2: relative flow change = 0.248232
              Trial  3: relative flow change = 0.179314
              CV 1154 switched from open to closed
              CV 1196 switched from open to closed
              CV 1210 switched from closed to open
              Trial  4: relative flow change = 0.127843
              Trial  5: relative flow change = 0.000098
              CV 1154 switched from closed to open
              Trial  6: relative flow change = 0.412120
              Trial  7: relative flow change = 0.375298
              CV 1154 switched from open to closed
              CV 1210 switched from open to closed
              Trial  8: relative flow change = 0.222937
              Trial  9: relative flow change = 0.000179
              CV 1154 switched from closed to open
              CV 1210 switched from closed to open
              Trial 10: relative flow change = 0.359839
              Trial 11: relative flow change = 0.315174
              Trial 12: relative flow change = 0.077812
              Trial 13: relative flow change = 0.005391
              Trial 14: relative flow change = 0.000374
              CV 1196 switched from closed to open
              CV 1210 switched from open to closed
              Trial 15: relative flow change = 0.039640
              Trial 16: relative flow change = 0.003235
              Trial 17: relative flow change = 0.000020
     8:18:22: Balanced after 17 trials
     8:18:22: Tank D is filling at 2.09 m
     8:18:22: Tank E is emptying at 2.69 m
     8:18:22: CV 1196 changed from temporarily closed to open
     8:18:22: CV 1783 changed from open to temporarily closed
   
     8:24:07: Balancing the network:
              Trial  1: relative flow change = 0.001036
              Trial  2: relative flow change = 0.000001
              CV 1196 switched from open to closed
              CV 1783 switched from closed to open
              Trial  3: relative flow change = 0.947453
              Trial  4: relative flow change = 1.039944
              Trial  5: relative flow change = 0.917234
              Trial  6: relative flow change = 0.729975
              Trial  7: relative flow change = 0.505540
              Trial  8: relative flow change = 0.302885
              Trial  9: relative flow change = 0.161566
              Trial 10: relative flow change = 0.079652
              Trial 11: relative flow change = 0.036828
              Trial 12: relative flow change = 0.015151
              Trial 13: relative flow change = 0.004359
              Trial 14: relative flow change = 0.000465
     8:24:07: Balanced after 14 trials
     8:24:07: Tank D is emptying at 2.11 m
     8:24:07: Tank E is filling at 2.68 m
     8:24:07: CV 1196 changed from open to temporarily closed
     8:24:07: CV 1783 changed from temporarily closed to open
   
     8:28:59: Balancing the network:
              Trial  1: relative flow change = 0.000739
              CV 1196 switched from closed to open
              CV 1783 switched from open to closed
              Trial  2: relative flow change = 0.248248
              Trial  3: relative flow change = 0.179323
              CV 1154 switched from open to closed
              CV 1196 switched from open to closed
              CV 1210 switched from closed to open
              Trial  4: relative flow change = 0.127858
              Trial  5: relative flow change = 0.000098
              CV 1154 switched from closed to open
              Trial  6: relative flow change = 0.412141
              Trial  7: relative flow change = 0.375332
              CV 1154 switched from open to closed
              CV 1210 switched from open to closed
              Trial  8: relative flow change = 0.222945
              Trial  9: relative flow change = 0.000179
              CV 1154 switched from closed to open
              CV 1210 switched from closed to open
              Trial 10: relative flow change = 0.359857
              Trial 11: relative flow change = 0.315197
              Trial 12: relative flow change = 0.077798
              Trial 13: relative flow change = 0.005387
              Trial 14: relative flow change = 0.000376
              CV 1196 switched from closed to open
              CV 1210 switched from open to closed
              Trial 15: relative flow change = 0.039650
              Trial 16: relative flow change = 0.003236
              Trial 17: relative flow change = 0.000020
     8:28:59: Balanced after 17 trials
     8:28:59: Tank D is filling at 2.09 m
     8:28:59: Tank E is emptying at 2.69 m
     8:28:59: CV 1196 changed from temporarily closed to open
     8:28:59: CV 1783 changed from open to temporarily closed
   
     8:35:22: Balancing the network:
              Trial  1: relative flow change = 0.001139
              Trial  2: relative flow change = 0.000001
              CV 1196 switched from open to closed
              CV 1783 switched from closed to open
              Trial  3: relative flow change = 0.947480
              Trial  4: relative flow change = 1.040007
              Trial  5: relative flow change = 0.917341
              Trial  6: relative flow change = 0.730123
              Trial  7: relative flow change = 0.505694
              Trial  8: relative flow change = 0.303005
              Trial  9: relative flow change = 0.161640
              Trial 10: relative flow change = 0.079691
              Trial 11: relative flow change = 0.036847
              Trial 12: relative flow change = 0.015159
              Trial 13: relative flow change = 0.004361
              Trial 14: relative flow change = 0.000465
     8:35:22: Balanced after 14 trials
     8:35:22: Tank D is emptying at 2.11 m
     8:35:22: Tank E is filling at 2.68 m
     8:35:22: CV 1196 changed from open to temporarily closed
     8:35:22: CV 1783 changed from temporarily closed to open
   
     8:40:46: Balancing the network:
              Trial  1: relative flow change = 0.000808
              CV 1196 switched from closed to open
              CV 1783 switched from open to closed
              Trial  2: relative flow change = 0.248267
              Trial  3: relative flow change = 0.179334
              CV 1154 switched from open to closed
              CV 1196 switched from open to closed
              CV 1210 switched from closed to open
              Trial  4: relative flow change = 0.127876
              Trial  5: relative flow change = 0.000098
              CV 1154 switched from closed to open
              Trial  6: relative flow change = 0.412167
              Trial  7: relative flow change = 0.375371
              CV 1154 switched from open to closed
              CV 1210 switched from open to closed
              Trial  8: relative flow change = 0.222956
              Trial  9: relative flow change = 0.000179
              CV 1154 switched from closed to open
              CV 1210 switched from closed to open
              Trial 10: relative flow change = 0.359879
              Trial 11: relative flow change = 0.315224
              Trial 12: relative flow change = 0.077784
              Trial 13: relative flow change = 0.005383
              Trial 14: relative flow change = 0.000378
              CV 1196 switched from closed to open
              CV 1210 switched from open to closed
              Trial 15: relative flow change = 0.039660
              Trial 16: relative flow change = 0.003236
              Trial 17: relative flow change = 0.000020
     8:40:46: Balanced after 17 trials
     8:40:46: Tank D is filling at 2.09 m
     8:40:46: Tank E is emptying at 2.69 m
     8:40:46: CV 1196 changed from temporarily closed to open
     8:40:46: CV 1783 changed from open to temporarily closed
   
     8:47:51: Balancing the network:
              Trial  1: relative flow change = 0.001249
              Trial  2: relative flow change = 0.000001
              CV 1196 switched from open to closed
              CV 1783 switched from closed to open
              Trial  3: relative flow change = 0.947510
              Trial  4: relative flow change = 1.040077
              Trial  5: relative flow change = 0.917458
              Trial  6: relative flow change = 0.730285
              Trial  7: relative flow change = 0.505863
              Trial  8: relative flow change = 0.303137
              Trial  9: relative flow change = 0.161722
              Trial 10: relative flow change = 0.079735
              Trial 11: relative flow change = 0.036868
              Trial 12: relative flow change = 0.015168
              Trial 13: relative flow change = 0.004364
              Trial 14: relative flow change = 0.000465
     8:47:51: Balanced after 14 trials
     8:47:51: Tank D is emptying at 2.11 m
     8:47:51: Tank E is filling at 2.68 m
     8:47:51: CV 1196 changed from open to temporarily closed
     8:47:51: CV 1783 changed from temporarily closed to open
   
     8:53:50: Balancing the network:
              Trial  1: relative flow change = 0.000881
              CV 1196 switched from closed to open
              CV 1783 switched from open to closed
              Trial  2: relative flow change = 0.248289
              Trial  3: relative flow change = 0.179349
              CV 1154 switched from open to closed
              CV 1196 switched from open to closed
              CV 1210 switched from closed to open
              Trial  4: relative flow change = 0.127896
              Trial  5: relative flow change = 0.000098
              CV 1154 switched from closed to open
              Trial  6: relative flow change = 0.412198
              Trial  7: relative flow change = 0.375418
              CV 1154 switched from open to closed
              CV 1210 switched from open to closed
              Trial  8: relative flow change = 0.222971
              Trial  9: relative flow change = 0.000179
              CV 1154 switched from closed to open
              CV 1210 switched from closed to open
              Trial 10: relative flow change = 0.359905
              Trial 11: relative flow change = 0.315257
              Trial 12: relative flow change = 0.077770
              Trial 13: relative flow change = 0.005379
              Trial 14: relative flow change = 0.000381
              CV 1196 switched from closed to open
              CV 1210 switched from open to closed
              Trial 15: relative flow change = 0.039672
              Trial 16: relative flow change = 0.003237
              Trial 17: relative flow change = 0.000020
     8:53:50: Balanced after 17 trials
     8:53:50: Tank D is filling at 2.09 m
     8:53:50: Tank E is emptying at 2.69 m
     8:53:50: CV 1196 changed from temporarily closed to open
     8:53:50: CV 1783 changed from open to temporarily closed
   
     9:00:00: Balancing the network:
              Trial  1: relative flow change = 0.243725
              Trial  2: relative flow change = 0.001283
              CV 1783 switched from closed to open
              Trial  3: relative flow change = 0.943943
              Trial  4: relative flow change = 1.039513
              Trial  5: relative flow change = 0.916510
              Trial  6: relative flow change = 0.728978
              Trial  7: relative flow change = 0.504498
              Trial  8: relative flow change = 0.302064
              Trial  9: relative flow change = 0.161043
              Trial 10: relative flow change = 0.079344
              Trial 11: relative flow change = 0.036627
              Trial 12: relative flow change = 0.014983
              Trial 13: relative flow change = 0.004231
              Trial 14: relative flow change = 0.000430
     9:00:00: Balanced after 14 trials
     9:00:00: Tank A is filling at 3.23 m
     9:00:00: Tank B is emptying at 3.21 m
     9:00:00: Tank E is filling at 2.68 m
     9:00:00: CV 1783 changed from temporarily closed to open
     9:00:00: Pump 4B changed from open to closed
   
     9:04:29: Balancing the network:
              Trial  1: relative flow change = 0.000105
              CV 1196 switched from open to closed
              Trial  2: relative flow change = 0.062897
              Trial  3: relative flow change = 0.000025
     9:04:29: Balanced after 3 trials
     9:04:29: Tank D is emptying at 2.11 m
     9:04:29: CV 1196 changed from open to temporarily closed
   
     9:05:22: Balancing the network:
              Trial  1: relative flow change = 0.000029
              CV 1196 switched from closed to open
              CV 1783 switched from open to closed
              Trial  2: relative flow change = 0.261192
              Trial  3: relative flow change = 0.190289
              CV 1154 switched from open to closed
              CV 1196 switched from open to closed
              CV 1210 switched from closed to open
              Trial  4: relative flow change = 0.137573
              Trial  5: relative flow change = 0.000105
              CV 1154 switched from closed to open
              Trial  6: relative flow change = 0.431563
              Trial  7: relative flow change = 0.400030
              CV 1154 switched from open to closed
              CV 1210 switched from open to closed
              Trial  8: relative flow change = 0.240402
              Trial  9: relative flow change = 0.000192
              CV 1154 switched from closed to open
              CV 1210 switched from closed to open
              Trial 10: relative flow change = 0.377049
              Trial 11: relative flow change = 0.335278
              Trial 12: relative flow change = 0.082544
              Trial 13: relative flow change = 0.005626
              Trial 14: relative flow change = 0.000412
              CV 1196 switched from closed to open
              CV 1210 switched from open to closed
              Trial 15: relative flow change = 0.042497
              Trial 16: relative flow change = 0.003447
              Trial 17: relative flow change = 0.000021
     9:05:22: Balanced after 17 trials
     9:05:22: Tank D is filling at 2.11 m
     9:05:22: Tank E is emptying at 2.69 m
     9:05:22: CV 1196 changed from temporarily closed to open
     9:05:22: CV 1783 changed from open to temporarily closed
   
     9:06:35: Balancing the network:
              Trial  1: relative flow change = 0.000026
              CV 1196 switched from open to closed
              CV 1783 switched from closed to open
              Trial  2: relative flow change = 0.950514
              Trial  3: relative flow change = 1.046698
              Trial  4: relative flow change = 0.928722
              Trial  5: relative flow change = 0.745938
              Trial  6: relative flow change = 0.522366
              Trial  7: relative flow change = 0.316144
              Trial  8: relative flow change = 0.169824
              Trial  9: relative flow change = 0.084034
              Trial 10: relative flow change = 0.038877
              Trial 11: relative flow change = 0.015918
              Trial 12: relative flow change = 0.004496
              Trial 13: relative flow change = 0.000457
     9:06:35: Balanced after 13 trials
     9:06:35: Tank D is emptying at 2.11 m
     9:06:35: Tank E is filling at 2.69 m
     9:06:35: CV 1196 changed from open to temporarily closed
     9:06:35: CV 1783 changed from temporarily closed to open
   
     9:07:41: Balancing the network:
              Trial  1: relative flow change = 0.000041
              CV 1196 switched from closed to open
              CV 1783 switched from open to closed
              Trial  2: relative flow change = 0.261253
              Trial  3: relative flow change = 0.190346
              CV 1154 switched from open to closed
              CV 1196 switched from open to closed
              CV 1210 switched from closed to open
              Trial  4: relative flow change = 0.137613
              Trial  5: relative flow change = 0.000104
              CV 1154 switched from closed to open
              Trial  6: relative flow change = 0.431642
              Trial  7: relative flow change = 0.400129
              CV 1154 switched from open to closed
              CV 1210 switched from open to closed
              Trial  8: relative flow change = 0.240485
              Trial  9: relative flow change = 0.000192
              CV 1154 switched from closed to open
              CV 1210 switched from closed to open
              Trial 10: relative flow change = 0.377125
              Trial 11: relative flow change = 0.335368
              Trial 12: relative flow change = 0.082581
              Trial 13: relative flow change = 0.005630
              Trial 14: relative flow change = 0.000411
              CV 1196 switched from closed to open
              CV 1210 switched from open to closed
              Trial 15: relative flow change = 0.042505
              Trial 16: relative flow change = 0.003448
              Trial 17: relative flow change = 0.000021
     9:07:41: Balanced after 17 trials
     9:07:41: Tank D is filling at 2.11 m
     9:07:41: Tank E is emptying at 2.69 m
     9:07:41: CV 1196 changed from temporarily closed to open
     9:07:41: CV 1783 changed from open to temporarily closed
   
     9:09:12: Balancing the network:
              Trial  1: relative flow change = 0.000033
              CV 1196 switched from open to closed
              CV 1783 switched from closed to open
              Trial  2: relative flow change = 0.950519
              Trial  3: relative flow change = 1.046707
              Trial  4: relative flow change = 0.928738
              Trial  5: relative flow change = 0.745960
              Trial  6: relative flow change = 0.522389
              Trial  7: relative flow change = 0.316163
              Trial  8: relative flow change = 0.169836
              Trial  9: relative flow change = 0.084041
              Trial 10: relative flow change = 0.038880
              Trial 11: relative flow change = 0.015919
              Trial 12: relative flow change = 0.004496
              Trial 13: relative flow change = 0.000458
     9:09:12: Balanced after 13 trials
     9:09:12: Tank D is emptying at 2.11 m
     9:09:12: Tank E is filling at 2.69 m
     9:09:12: CV 1196 changed from open to temporarily closed
     9:09:12: CV 1783 changed from temporarily closed to open
   
     9:10:34: Balancing the network:
              Trial  1: relative flow change = 0.000050
              CV 1196 switched from closed to open
              CV 1783 switched from open to closed
              Trial  2: relative flow change = 0.261329
              Trial  3: relative flow change = 0.190416
              CV 1154 switched from open to closed
              CV 1196 switched from open to closed
              CV 1210 switched from closed to open
              Trial  4: relative flow change = 0.137663
              Trial  5: relative flow change = 0.000104
              CV 1154 switched from closed to open
              Trial  6: relative flow change = 0.431741
              Trial  7: relative flow change = 0.400251
              CV 1154 switched from open to closed
              CV 1210 switched from open to closed
              Trial  8: relative flow change = 0.240588
              Trial  9: relative flow change = 0.000192
              CV 1154 switched from closed to open
              CV 1210 switched from closed to open
              Trial 10: relative flow change = 0.377220
              Trial 11: relative flow change = 0.335479
              Trial 12: relative flow change = 0.082627
              Trial 13: relative flow change = 0.005636
              Trial 14: relative flow change = 0.000410
              CV 1196 switched from closed to open
              CV 1210 switched from open to closed
              Trial 15: relative flow change = 0.042515
              Trial 16: relative flow change = 0.003449
              Trial 17: relative flow change = 0.000021
     9:10:34: Balanced after 17 trials
     9:10:34: Tank D is filling at 2.11 m
     9:10:34: Tank E is emptying at 2.69 m
     9:10:34: CV 1196 changed from temporarily closed to open
     9:10:34: CV 1783 changed from open to temporarily closed
   
     9:12:28: Balancing the network:
              Trial  1: relative flow change = 0.000041
              CV 1196 switched from open to closed
              CV 1783 switched from closed to open
              Trial  2: relative flow change = 0.950525
              Trial  3: relative flow change = 1.046719
              Trial  4: relative flow change = 0.928758
              Trial  5: relative flow change = 0.745987
              Trial  6: relative flow change = 0.522419
              Trial  7: relative flow change = 0.316187
              Trial  8: relative flow change = 0.169851
              Trial  9: relative flow change = 0.084049
              Trial 10: relative flow change = 0.038883
              Trial 11: relative flow change = 0.015921
              Trial 12: relative flow change = 0.004497
              Trial 13: relative flow change = 0.000458
     9:12:28: Balanced after 13 trials
     9:12:28: Tank D is emptying at 2.11 m
     9:12:28: Tank E is filling at 2.69 m
     9:12:28: CV 1196 changed from open to temporarily closed
     9:12:28: CV 1783 changed from temporarily closed to open
   
     9:14:10: Balancing the network:
              Trial  1: relative flow change = 0.000060
              CV 1196 switched from closed to open
              CV 1783 switched from open to closed
              Trial  2: relative flow change = 0.261424
              Trial  3: relative flow change = 0.190503
              CV 1154 switched from open to closed
              CV 1196 switched from open to closed
              CV 1210 switched from closed to open
              Trial  4: relative flow change = 0.137724
              Trial  5: relative flow change = 0.000105
              CV 1154 switched from closed to open
              Trial  6: relative flow change = 0.431864
              Trial  7: relative flow change = 0.400404
              CV 1154 switched from open to closed
              CV 1210 switched from open to closed
              Trial  8: relative flow change = 0.240717
              Trial  9: relative flow change = 0.000192
              CV 1154 switched from closed to open
              CV 1210 switched from closed to open
              Trial 10: relative flow change = 0.377339
              Trial 11: relative flow change = 0.335617
              Trial 12: relative flow change = 0.082686
              Trial 13: relative flow change = 0.005643
              Trial 14: relative flow change = 0.000408
              CV 1196 switched from closed to open
              CV 1210 switched from open to closed
              Trial 15: relative flow change = 0.042528
              Trial 16: relative flow change = 0.003451
              Trial 17: relative flow change = 0.000021
     9:14:10: Balanced after 17 trials
     9:14:10: Tank D is filling at 2.10 m
     9:14:10: Tank E is emptying at 2.69 m
     9:14:10: CV 1196 changed from temporarily closed to open
     9:14:10: CV 1783 changed from open to temporarily closed
   
     9:16:31: Balancing the network:
              Trial  1: relative flow change = 0.000051
              CV 1196 switched from open to closed
              CV 1783 switched from closed to open
              Trial  2: relative flow change = 0.950532
              Trial  3: relative flow change = 1.046733
              Trial  4: relative flow change = 0.928782
              Trial  5: relative flow change = 0.746022
              Trial  6: relative flow change = 0.522455
              Trial  7: relative flow change = 0.316216
              Trial  8: relative flow change = 0.169869
              Trial  9: relative flow change = 0.084058
              Trial 10: relative flow change = 0.038888
              Trial 11: relative flow change = 0.015923
              Trial 12: relative flow change = 0.004497
              Trial 13: relative flow change = 0.000458
     9:16:31: Balanced after 13 trials
     9:16:31: Tank D is emptying at 2.11 m
     9:16:31: Tank E is filling at 2.69 m
     9:16:31: CV 1196 changed from open to temporarily closed
     9:16:31: CV 1783 changed from temporarily closed to open
   
     9:18:38: Balancing the network:
              Trial  1: relative flow change = 0.000074
              CV 1196 switched from closed to open
              CV 1783 switched from open to closed
              Trial  2: relative flow change = 0.261542
              Trial  3: relative flow change = 0.190612
              CV 1154 switched from open to closed
              CV 1196 switched from open to closed
              CV 1210 switched from closed to open
              Trial  4: relative flow change = 0.137802
              Trial  5: relative flow change = 0.000105
              CV 1154 switched from closed to open
              Trial  6: relative flow change = 0.432016
              Trial  7: relative flow change = 0.400594
              CV 1154 switched from open to closed
              CV 1210 switched from open to closed
              Trial  8: relative flow change = 0.240877
              Trial  9: relative flow change = 0.000192
              CV 1154 switched from closed to open
              CV 1210 switched from closed to open
              Trial 10: relative flow change = 0.377486
              Trial 11: relative flow change = 0.335790
              Trial 12: relative flow change = 0.082757
              Trial 13: relative flow change = 0.005652
              Trial 14: relative flow change = 0.000406
              CV 1196 switched from closed to open
              CV 1210 switched from open to closed
              Trial 15: relative flow change = 0.042544
              Trial 16: relative flow change = 0.003453
              Trial 17: relative flow change = 0.000021
     9:18:38: Balanced after 17 trials
     9:18:38: Tank D is filling at 2.10 m
     9:18:38: Tank E is emptying at 2.69 m
     9:18:38: CV 1196 changed from temporarily closed to open
     9:18:38: CV 1783 changed from open to temporarily closed
   
     9:21:34: Balancing the network:
              Trial  1: relative flow change = 0.000064
              CV 1196 switched from open to closed
              CV 1783 switched from closed to open
              Trial  2: relative flow change = 0.950540
              Trial  3: relative flow change = 1.046751
              Trial  4: relative flow change = 0.928813
              Trial  5: relative flow change = 0.746064
              Trial  6: relative flow change = 0.522501
              Trial  7: relative flow change = 0.316252
              Trial  8: relative flow change = 0.169892
              Trial  9: relative flow change = 0.084071
              Trial 10: relative flow change = 0.038894
              Trial 11: relative flow change = 0.015925
              Trial 12: relative flow change = 0.004498
              Trial 13: relative flow change = 0.000458
     9:21:34: Balanced after 13 trials
     9:21:34: Tank D is emptying at 2.11 m
     9:21:34: Tank E is filling at 2.69 m
     9:21:34: CV 1196 changed from open to temporarily closed
     9:21:34: CV 1783 changed from temporarily closed to open
   
     9:24:12: Balancing the network:
              Trial  1: relative flow change = 0.000091
              CV 1196 switched from closed to open
              CV 1783 switched from open to closed
              Trial  2: relative flow change = 0.261688
              Trial  3: relative flow change = 0.190747
              CV 1154 switched from open to closed
              CV 1196 switched from open to closed
              CV 1210 switched from closed to open
              Trial  4: relative flow change = 0.137897
              Trial  5: relative flow change = 0.000105
              CV 1154 switched from closed to open
              Trial  6: relative flow change = 0.432206
              Trial  7: relative flow change = 0.400830
              CV 1154 switched from open to closed
              CV 1210 switched from open to closed
              Trial  8: relative flow change = 0.241077
              Trial  9: relative flow change = 0.000193
              CV 1154 switched from closed to open
              CV 1210 switched from closed to open
              Trial 10: relative flow change = 0.377670
              Trial 11: relative flow change = 0.336004
              Trial 12: relative flow change = 0.082847
              Trial 13: relative flow change = 0.005663
              Trial 14: relative flow change = 0.000403
              CV 1196 switched from closed to open
              CV 1210 switched from open to closed
              Trial 15: relative flow change = 0.042564
              Trial 16: relative flow change = 0.003455
              Trial 17: relative flow change = 0.000021
     9:24:12: Balanced after 17 trials
     9:24:12: Tank D is filling at 2.10 m
     9:24:12: Tank E is emptying at 2.69 m
     9:24:12: CV 1196 changed from temporarily closed to open
     9:24:12: CV 1783 changed from open to temporarily closed
   
     9:27:51: Balancing the network:
              Trial  1: relative flow change = 0.000079
              CV 1196 switched from open to closed
              CV 1783 switched from closed to open
              Trial  2: relative flow change = 0.950551
              Trial  3: relative flow change = 1.046773
              Trial  4: relative flow change = 0.928851
              Trial  5: relative flow change = 0.746118
              Trial  6: relative flow change = 0.522558
              Trial  7: relative flow change = 0.316297
              Trial  8: relative flow change = 0.169920
              Trial  9: relative flow change = 0.084086
              Trial 10: relative flow change = 0.038901
              Trial 11: relative flow change = 0.015928
              Trial 12: relative flow change = 0.004499
              Trial 13: relative flow change = 0.000458
     9:27:51: Balanced after 13 trials
     9:27:51: Tank D is emptying at 2.11 m
     9:27:51: Tank E is filling at 2.68 m
     9:27:51: CV 1196 changed from open to temporarily closed
     9:27:51: CV 1783 changed from temporarily closed to open
   
     9:31:08: Balancing the network:
              Trial  1: relative flow change = 0.000112
              CV 1196 switched from closed to open
              CV 1783 switched from open to closed
              Trial  2: relative flow change = 0.261871
              Trial  3: relative flow change = 0.190915
              CV 1154 switched from open to closed
              CV 1196 switched from open to closed
              CV 1210 switched from closed to open
              Trial  4: relative flow change = 0.138017
              Trial  5: relative flow change = 0.000105
              CV 1154 switched from closed to open
              Trial  6: relative flow change = 0.432443
              Trial  7: relative flow change = 0.401124
              CV 1154 switched from open to closed
              CV 1210 switched from open to closed
              Trial  8: relative flow change = 0.241325
              Trial  9: relative flow change = 0.000193
              CV 1154 switched from closed to open
              CV 1210 switched from closed to open
              Trial 10: relative flow change = 0.377898
              Trial 11: relative flow change = 0.336271
              Trial 12: relative flow change = 0.082959
              Trial 13: relative flow change = 0.005677
              Trial 14: relative flow change = 0.000400
              CV 1196 switched from closed to open
              CV 1210 switched from open to closed
              Trial 15: relative flow change = 0.042589
              Trial 16: relative flow change = 0.003458
              Trial 17: relative flow change = 0.000021
     9:31:08: Balanced after 17 trials
     9:31:08: Tank D is filling at 2.10 m
     9:31:08: Tank E is emptying at 2.69 m
     9:31:08: CV 1196 changed from temporarily closed to open
     9:31:08: CV 1783 changed from open to temporarily closed
   
     9:35:40: Balancing the network:
              Trial  1: relative flow change = 0.000098
              CV 1196 switched from open to closed
              CV 1783 switched from closed to open
              Trial  2: relative flow change = 0.950565
              Trial  3: relative flow change = 1.046800
              Trial  4: relative flow change = 0.928898
              Trial  5: relative flow change = 0.746184
              Trial  6: relative flow change = 0.522628
              Trial  7: relative flow change = 0.316354
              Trial  8: relative flow change = 0.169956
              Trial  9: relative flow change = 0.084105
              Trial 10: relative flow change = 0.038911
              Trial 11: relative flow change = 0.015932
              Trial 12: relative flow change = 0.004500
              Trial 13: relative flow change = 0.000458
     9:35:40: Balanced after 13 trials
     9:35:40: Tank D is emptying at 2.11 m
     9:35:40: Tank E is filling at 2.68 m
     9:35:40: CV 1196 changed from open to temporarily closed
     9:35:40: CV 1783 changed from temporarily closed to open
   
     9:39:44: Balancing the network:
              Trial  1: relative flow change = 0.000138
              CV 1196 switched from closed to open
              CV 1783 switched from open to closed
              Trial  2: relative flow change = 0.262097
              Trial  3: relative flow change = 0.191124
              CV 1154 switched from open to closed
              CV 1196 switched from open to closed
              CV 1210 switched from closed to open
              Trial  4: relative flow change = 0.138164
              Trial  5: relative flow change = 0.000105
              CV 1154 switched from closed to open
              Trial  6: relative flow change = 0.432735
              Trial  7: relative flow change = 0.401488
              CV 1154 switched from open to closed
              CV 1210 switched from open to closed
              Trial  8: relative flow change = 0.241633
              Trial  9: relative flow change = 0.000194
              CV 1154 switched from closed to open
              CV 1210 switched from closed to open
              Trial 10: relative flow change = 0.378181
              Trial 11: relative flow change = 0.336601
              Trial 12: relative flow change = 0.083097
              Trial 13: relative flow change = 0.005693
              Trial 14: relative flow change = 0.000396
              CV 1196 switched from closed to open
              CV 1210 switched from open to closed
              Trial 15: relative flow change = 0.042620
              Trial 16: relative flow change = 0.003462
              Trial 17: relative flow change = 0.000021
     9:39:44: Balanced after 17 trials
     9:39:44: Tank D is filling at 2.10 m
     9:39:44: Tank E is emptying at 2.69 m
     9:39:44: CV 1196 changed from temporarily closed to open
     9:39:44: CV 1783 changed from open to temporarily closed
   
     9:45:21: Balancing the network:
              Trial  1: relative flow change = 0.000122
              CV 1196 switched from open to closed
              CV 1783 switched from closed to open
              Trial  2: relative flow change = 0.950581
              Trial  3: relative flow change = 1.046834
              Trial  4: relative flow change = 0.928956
              Trial  5: relative flow change = 0.746265
              Trial  6: relative flow change = 0.522715
              Trial  7: relative flow change = 0.316423
              Trial  8: relative flow change = 0.169999
              Trial  9: relative flow change = 0.084128
              Trial 10: relative flow change = 0.038922
              Trial 11: relative flow change = 0.015937
              Trial 12: relative flow change = 0.004501
              Trial 13: relative flow change = 0.000458
     9:45:21: Balanced after 13 trials
     9:45:21: Tank D is emptying at 2.11 m
     9:45:21: Tank E is filling at 2.68 m
     9:45:21: CV 1196 changed from open to temporarily closed
     9:45:21: CV 1783 changed from temporarily closed to open
   
     9:46:35: Balancing the network:
              Trial  1: relative flow change = 0.000045
              CV 1196 switched from closed to open
              Pipe 1879 switched from open to closed
              Pipe p2 switched from open to closed
              Trial  2: relative flow change = 1.998165
              Trial  3: relative flow change = 0.615209
              CV 1154 switched from open to closed
              CV 1196 switched from open to closed
              CV 1210 switched from closed to open
              Trial  4: relative flow change = 0.610110
              Trial  5: relative flow change = 0.000501
              CV 1154 switched from closed to open
              Trial  6: relative flow change = 0.786288
              Trial  7: relative flow change = 1.077898
              CV 1154 switched from open to closed
              CV 1210 switched from open to closed
              Trial  8: relative flow change = 0.988098
              Trial  9: relative flow change = 0.004027
              CV 1154 switched from closed to open
              CV 1210 switched from closed to open
              Trial 10: relative flow change = 0.740223
              Trial 11: relative flow change = 0.959947
              Trial 12: relative flow change = 0.264998
              Trial 13: relative flow change = 0.016241
              Trial 14: relative flow change = 0.001236
              Trial 15: relative flow change = 0.000002
              CV 1196 switched from closed to open
              CV 1210 switched from open to closed
              Trial 16: relative flow change = 0.152412
              Trial 17: relative flow change = 0.012886
              Trial 18: relative flow change = 0.000079
     9:46:35: Balanced after 18 trials
     9:46:35: Tank A is emptying at 3.37 m
     9:46:35: Tank D is filling at 2.11 m
     9:46:35: CV 1196 changed from temporarily closed to open
     9:46:35: Pipe 1879 changed from open to temporarily closed
     9:46:35: Pipe p2 changed from open to temporarily closed
   
     9:50:24: Balancing the network:
              Trial  1: relative flow change = 0.000145
              CV 1783 switched from open to closed
              Pipe 1879 switched from closed to open
              Pipe p2 switched from closed to open
              Trial  2: relative flow change = 0.944930
              Trial  3: relative flow change = 1.576132
              Trial  4: relative flow change = 0.619051
              Trial  5: relative flow change = 0.051079
              Trial  6: relative flow change = 0.003668
              Trial  7: relative flow change = 0.000003
     9:50:24: Balanced after 7 trials
     9:50:24: Tank A is filling at 3.35 m
     9:50:24: Tank E is emptying at 2.69 m
     9:50:24: CV 1783 changed from open to temporarily closed
     9:50:24: Pipe 1879 changed from temporarily closed to open
     9:50:24: Pipe p2 changed from temporarily closed to open
   
     9:50:36: Balancing the network:
              Trial  1: relative flow change = 0.000004
              CV 1196 switched from open to closed
              CV 1783 switched from closed to open
              Trial  2: relative flow change = 0.950568
              Trial  3: relative flow change = 1.046803
              Trial  4: relative flow change = 0.928902
              Trial  5: relative flow change = 0.746190
              Trial  6: relative flow change = 0.522635
              Trial  7: relative flow change = 0.316359
              Trial  8: relative flow change = 0.169959
              Trial  9: relative flow change = 0.084106
              Trial 10: relative flow change = 0.038911
              Trial 11: relative flow change = 0.015932
              Trial 12: relative flow change = 0.004500
              Trial 13: relative flow change = 0.000458
     9:50:36: Balanced after 13 trials
     9:50:36: Tank D is emptying at 2.11 m
     9:50:36: Tank E is filling at 2.69 m
     9:50:36: CV 1196 changed from open to temporarily closed
     9:50:36: CV 1783 changed from temporarily closed to open
   
     9:50:47: Balancing the network:
              Trial  1: relative flow change = 0.000011
              CV 1196 switched from closed to open
              CV 1783 switched from open to closed
              Trial  2: relative flow change = 0.262058
              Trial  3: relative flow change = 0.191084
              CV 1154 switched from open to closed
              CV 1196 switched from open to closed
              CV 1210 switched from closed to open
              Trial  4: relative flow change = 0.138138
              Trial  5: relative flow change = 0.000105
              CV 1154 switched from closed to open
              Trial  6: relative flow change = 0.432682
              Trial  7: relative flow change = 0.401423
              CV 1154 switched from open to closed
              CV 1210 switched from open to closed
              Trial  8: relative flow change = 0.241573
              Trial  9: relative flow change = 0.000194
              CV 1154 switched from closed to open
              CV 1210 switched from closed to open
              Trial 10: relative flow change = 0.378128
              Trial 11: relative flow change = 0.336541
              Trial 12: relative flow change = 0.083066
              Trial 13: relative flow change = 0.005689
              Trial 14: relative flow change = 0.000398
              CV 1196 switched from closed to open
              CV 1210 switched from open to closed
              Trial 15: relative flow change = 0.042616
              Trial 16: relative flow change = 0.003461
              Trial 17: relative flow change = 0.000021
     9:50:47: Balanced after 17 trials
     9:50:47: Tank D is filling at 2.11 m
     9:50:47: Tank E is emptying at 2.69 m
     9:50:47: CV 1196 changed from temporarily closed to open
     9:50:47: CV 1783 changed from open to temporarily closed
   
     9:51:02: Balancing the network:
              Trial  1: relative flow change = 0.000006
              CV 1196 switched from open to closed
              CV 1783 switched from closed to open
              Trial  2: relative flow change = 0.950568
              Trial  3: relative flow change = 1.046804
              Trial  4: relative flow change = 0.928905
              Trial  5: relative flow change = 0.746193
              Trial  6: relative flow change = 0.522638
              Trial  7: relative flow change = 0.316362
              Trial  8: relative flow change = 0.169961
              Trial  9: relative flow change = 0.084108
              Trial 10: relative flow change = 0.038912
              Trial 11: relative flow change = 0.015932
              Trial 12: relative flow change = 0.004500
              Trial 13: relative flow change = 0.000458
     9:51:02: Balanced after 13 trials
     9:51:02: Tank D is emptying at 2.11 m
     9:51:02: Tank E is filling at 2.69 m
     9:51:02: CV 1196 changed from open to temporarily closed
     9:51:02: CV 1783 changed from temporarily closed to open
   
     9:51:15: Balancing the network:
              Trial  1: relative flow change = 0.000012
              CV 1196 switched from closed to open
              CV 1783 switched from open to closed
              Trial  2: relative flow change = 0.262070
              Trial  3: relative flow change = 0.191095
              CV 1154 switched from open to closed
              CV 1196 switched from open to closed
              CV 1210 switched from closed to open
              Trial  4: relative flow change = 0.138146
              Trial  5: relative flow change = 0.000105
              CV 1154 switched from closed to open
              Trial  6: relative flow change = 0.432698
              Trial  7: relative flow change = 0.401443
              CV 1154 switched from open to closed
              CV 1210 switched from open to closed
              Trial  8: relative flow change = 0.241590
              Trial  9: relative flow change = 0.000193
              CV 1154 switched from closed to open
              CV 1210 switched from closed to open
              Trial 10: relative flow change = 0.378143
              Trial 11: relative flow change = 0.336558
              Trial 12: relative flow change = 0.083073
              Trial 13: relative flow change = 0.005690
              Trial 14: relative flow change = 0.000397
              CV 1196 switched from closed to open
              CV 1210 switched from open to closed
              Trial 15: relative flow change = 0.042617
              Trial 16: relative flow change = 0.003461
              Trial 17: relative flow change = 0.000021
     9:51:15: Balanced after 17 trials
     9:51:15: Tank D is filling at 2.11 m
     9:51:15: Tank E is emptying at 2.69 m
     9:51:15: CV 1196 changed from temporarily closed to open
     9:51:15: CV 1783 changed from open to temporarily closed
   
     9:51:33: Balancing the network:
              Trial  1: relative flow change = 0.000006
              CV 1196 switched from open to closed
              CV 1783 switched from closed to open
              Trial  2: relative flow change = 0.950569
              Trial  3: relative flow change = 1.046806
              Trial  4: relative flow change = 0.928908
              Trial  5: relative flow change = 0.746198
              Trial  6: relative flow change = 0.522643
              Trial  7: relative flow change = 0.316365
              Trial  8: relative flow change = 0.169963
              Trial  9: relative flow change = 0.084109
              Trial 10: relative flow change = 0.038912
              Trial 11: relative flow change = 0.015933
              Trial 12: relative flow change = 0.004500
              Trial 13: relative flow change = 0.000458
     9:51:33: Balanced after 13 trials
     9:51:33: Tank D is emptying at 2.11 m
     9:51:33: Tank E is filling at 2.69 m
     9:51:33: CV 1196 changed from open to temporarily closed
     9:51:33: CV 1783 changed from temporarily closed to open
   
     9:51:49: Balancing the network:
              Trial  1: relative flow change = 0.000014
              CV 1196 switched from closed to open
              CV 1783 switched from open to closed
              Trial  2: relative flow change = 0.262085
              Trial  3: relative flow change = 0.191109
              CV 1154 switched from open to closed
              CV 1196 switched from open to closed
              CV 1210 switched from closed to open
              Trial  4: relative flow change = 0.138156
              Trial  5: relative flow change = 0.000105
              CV 1154 switched from closed to open
              Trial  6: relative flow change = 0.432717
              Trial  7: relative flow change = 0.401467
              CV 1154 switched from open to closed
              CV 1210 switched from open to closed
              Trial  8: relative flow change = 0.241610
              Trial  9: relative flow change = 0.000193
              CV 1154 switched from closed to open
              CV 1210 switched from closed to open
              Trial 10: relative flow change = 0.378162
              Trial 11: relative flow change = 0.336580
              Trial 12: relative flow change = 0.083082
              Trial 13: relative flow change = 0.005691
              Trial 14: relative flow change = 0.000397
              CV 1196 switched from closed to open
              CV 1210 switched from open to closed
              Trial 15: relative flow change = 0.042619
              Trial 16: relative flow change = 0.003462
              Trial 17: relative flow change = 0.000021
     9:51:49: Balanced after 17 trials
     9:51:49: Tank D is filling at 2.11 m
     9:51:49: Tank E is emptying at 2.69 m
     9:51:49: CV 1196 changed from temporarily closed to open
     9:51:49: CV 1783 changed from open to temporarily closed
   
     9:52:11: Balancing the network:
              Trial  1: relative flow change = 0.000008
              CV 1196 switched from open to closed
              CV 1783 switched from closed to open
              Trial  2: relative flow change = 0.950570
              Trial  3: relative flow change = 1.046808
              Trial  4: relative flow change = 0.928912
              Trial  5: relative flow change = 0.746203
              Trial  6: relative flow change = 0.522649
              Trial  7: relative flow change = 0.316370
              Trial  8: relative flow change = 0.169966
              Trial  9: relative flow change = 0.084110
              Trial 10: relative flow change = 0.038913
              Trial 11: relative flow change = 0.015933
              Trial 12: relative flow change = 0.004500
              Trial 13: relative flow change = 0.000458
     9:52:11: Balanced after 13 trials
     9:52:11: Tank D is emptying at 2.11 m
     9:52:11: Tank E is filling at 2.69 m
     9:52:11: CV 1196 changed from open to temporarily closed
     9:52:11: CV 1783 changed from temporarily closed to open
   
     9:52:31: Balancing the network:
              Trial  1: relative flow change = 0.000016
              CV 1196 switched from closed to open
              CV 1783 switched from open to closed
              Trial  2: relative flow change = 0.262103
              Trial  3: relative flow change = 0.191126
              CV 1154 switched from open to closed
              CV 1196 switched from open to closed
              CV 1210 switched from closed to open
              Trial  4: relative flow change = 0.138168
              Trial  5: relative flow change = 0.000105
              CV 1154 switched from closed to open
              Trial  6: relative flow change = 0.432741
              Trial  7: relative flow change = 0.401497
              CV 1154 switched from open to closed
              CV 1210 switched from open to closed
              Trial  8: relative flow change = 0.241636
              Trial  9: relative flow change = 0.000194
              CV 1154 switched from closed to open
              CV 1210 switched from closed to open
              Trial 10: relative flow change = 0.378185
              Trial 11: relative flow change = 0.336607
              Trial 12: relative flow change = 0.083093
              Trial 13: relative flow change = 0.005692
              Trial 14: relative flow change = 0.000396
              CV 1196 switched from closed to open
              CV 1210 switched from open to closed
              Trial 15: relative flow change = 0.042622
              Trial 16: relative flow change = 0.003462
              Trial 17: relative flow change = 0.000021
     9:52:31: Balanced after 17 trials
     9:52:31: Tank D is filling at 2.11 m
     9:52:31: Tank E is emptying at 2.69 m
     9:52:31: CV 1196 changed from temporarily closed to open
     9:52:31: CV 1783 changed from open to temporarily closed
   
     9:52:59: Balancing the network:
              Trial  1: relative flow change = 0.000010
              CV 1196 switched from open to closed
              CV 1783 switched from closed to open
              Trial  2: relative flow change = 0.950572
              Trial  3: relative flow change = 1.046811
              Trial  4: relative flow change = 0.928917
              Trial  5: relative flow change = 0.746210
              Trial  6: relative flow change = 0.522656
              Trial  7: relative flow change = 0.316376
              Trial  8: relative flow change = 0.169970
              Trial  9: relative flow change = 0.084112
              Trial 10: relative flow change = 0.038914
              Trial 11: relative flow change = 0.015933
              Trial 12: relative flow change = 0.004500
              Trial 13: relative flow change = 0.000458
     9:52:59: Balanced after 13 trials
     9:52:59: Tank D is emptying at 2.11 m
     9:52:59: Tank E is filling at 2.69 m
     9:52:59: CV 1196 changed from open to temporarily closed
     9:52:59: CV 1783 changed from temporarily closed to open
   
     9:53:24: Balancing the network:
              Trial  1: relative flow change = 0.000019
              CV 1196 switched from closed to open
              CV 1783 switched from open to closed
              Trial  2: relative flow change = 0.262127
              Trial  3: relative flow change = 0.191147
              CV 1154 switched from open to closed
              CV 1196 switched from open to closed
              CV 1210 switched from closed to open
              Trial  4: relative flow change = 0.138183
              Trial  5: relative flow change = 0.000105
              CV 1154 switched from closed to open
              Trial  6: relative flow change = 0.432771
              Trial  7: relative flow change = 0.401534
              CV 1154 switched from open to closed
              CV 1210 switched from open to closed
              Trial  8: relative flow change = 0.241667
              Trial  9: relative flow change = 0.000194
              CV 1154 switched from closed to open
              CV 1210 switched from closed to open
              Trial 10: relative flow change = 0.378214
              Trial 11: relative flow change = 0.336641
              Trial 12: relative flow change = 0.083108
              Trial 13: relative flow change = 0.005694
              Trial 14: relative flow change = 0.000396
              CV 1196 switched from closed to open
              CV 1210 switched from open to closed
              Trial 15: relative flow change = 0.042625
              Trial 16: relative flow change = 0.003462
              Trial 17: relative flow change = 0.000021
     9:53:24: Balanced after 17 trials
     9:53:24: Tank D is filling at 2.11 m
     9:53:24: Tank E is emptying at 2.69 m
     9:53:24: CV 1196 changed from temporarily closed to open
     9:53:24: CV 1783 changed from open to temporarily closed
   
     9:53:59: Balancing the network:
              Trial  1: relative flow change = 0.000013
              CV 1196 switched from open to closed
              CV 1783 switched from closed to open
              Trial  2: relative flow change = 0.950573
              Trial  3: relative flow change = 1.046815
              Trial  4: relative flow change = 0.928923
              Trial  5: relative flow change = 0.746218
              Trial  6: relative flow change = 0.522665
              Trial  7: relative flow change = 0.316383
              Trial  8: relative flow change = 0.169974
              Trial  9: relative flow change = 0.084115
              Trial 10: relative flow change = 0.038915
              Trial 11: relative flow change = 0.015934
              Trial 12: relative flow change = 0.004500
              Trial 13: relative flow change = 0.000458
     9:53:59: Balanced after 13 trials
     9:53:59: Tank D is emptying at 2.11 m
     9:53:59: Tank E is filling at 2.69 m
     9:53:59: CV 1196 changed from open to temporarily closed
     9:53:59: CV 1783 changed from temporarily closed to open
   
     9:54:11: Balancing the network:
              Trial  1: relative flow change = 0.000012
              CV 1196 switched from closed to open
              Pipe 1740 switched from open to closed
              Trial  2: relative flow change = 0.270738
              Trial  3: relative flow change = 0.195550
              CV 1154 switched from open to closed
              CV 1196 switched from open to closed
              CV 1210 switched from closed to open
              Trial  4: relative flow change = 0.141944
              Trial  5: relative flow change = 0.000009
              CV 1154 switched from closed to open
              Trial  6: relative flow change = 0.424094
              Trial  7: relative flow change = 0.389383
              CV 1154 switched from open to closed
              CV 1210 switched from open to closed
              Trial  8: relative flow change = 0.232239
              Trial  9: relative flow change = 0.000791
              CV 1154 switched from closed to open
              CV 1210 switched from closed to open
              Trial 10: relative flow change = 0.371584
              Trial 11: relative flow change = 0.326832
              Trial 12: relative flow change = 0.077744
              Trial 13: relative flow change = 0.004817
              Trial 14: relative flow change = 0.000327
              CV 1196 switched from closed to open
              CV 1210 switched from open to closed
              Trial 15: relative flow change = 0.043610
              Trial 16: relative flow change = 0.003659
              Trial 17: relative flow change = 0.000022
     9:54:11: Balanced after 17 trials
     9:54:11: Tank C is closed at 2.00 m
     9:54:11: Tank D is filling at 2.11 m
     9:54:11: CV 1196 changed from temporarily closed to open
     9:54:11: Pipe 1740 changed from open to temporarily closed
   
     9:54:30: Balancing the network:
              Trial  1: relative flow change = 0.000008
              CV 1783 switched from open to closed
              Trial  2: relative flow change = 0.017904
              Trial  3: relative flow change = 0.000000
     9:54:30: Balanced after 3 trials
     9:54:30: Tank E is emptying at 2.69 m
     9:54:30: CV 1783 changed from open to temporarily closed
   
     9:54:39: Balancing the network:
              Trial  1: relative flow change = 0.000004
              CV 1196 switched from open to closed
              CV 1783 switched from closed to open
              Trial  2: relative flow change = 0.952668
              Trial  3: relative flow change = 1.051531
              Trial  4: relative flow change = 0.937034
              Trial  5: relative flow change = 0.757672
              Trial  6: relative flow change = 0.534979
              Trial  7: relative flow change = 0.326269
              Trial  8: relative flow change = 0.176221
              Trial  9: relative flow change = 0.087477
              Trial 10: relative flow change = 0.040534
              Trial 11: relative flow change = 0.016607
              Trial 12: relative flow change = 0.004691
              Trial 13: relative flow change = 0.000477
     9:54:39: Balanced after 13 trials
     9:54:39: Tank D is emptying at 2.11 m
     9:54:39: Tank E is filling at 2.69 m
     9:54:39: CV 1196 changed from open to temporarily closed
     9:54:39: CV 1783 changed from temporarily closed to open
   
     9:54:47: Balancing the network:
              Trial  1: relative flow change = 0.000010
              CV 1196 switched from closed to open
              CV 1783 switched from open to closed
              Trial  2: relative flow change = 0.272354
              Trial  3: relative flow change = 0.200409
              CV 1154 switched from open to closed
              CV 1196 switched from open to closed
              CV 1210 switched from closed to open
              Trial  4: relative flow change = 0.145472
              Trial  5: relative flow change = 0.000001
              CV 1154 switched from closed to open
              Trial  6: relative flow change = 0.447006
              Trial  7: relative flow change = 0.420579
              CV 1154 switched from open to closed
              CV 1210 switched from open to closed
              Trial  8: relative flow change = 0.256653
              Trial  9: relative flow change = 0.000000
              CV 1154 switched from closed to open
              CV 1210 switched from closed to open
              Trial 10: relative flow change = 0.391319
              Trial 11: relative flow change = 0.352772
              Trial 12: relative flow change = 0.088288
              Trial 13: relative flow change = 0.006193
              Trial 14: relative flow change = 0.000389
              CV 1196 switched from closed to open
              CV 1210 switched from open to closed
              Trial 15: relative flow change = 0.044469
              Trial 16: relative flow change = 0.003616
              Trial 17: relative flow change = 0.000022
     9:54:47: Balanced after 17 trials
     9:54:47: Tank D is filling at 2.11 m
     9:54:47: Tank E is emptying at 2.69 m
     9:54:47: CV 1196 changed from temporarily closed to open
     9:54:47: CV 1783 changed from open to temporarily closed
   
     9:54:58: Balancing the network:
              Trial  1: relative flow change = 0.000005
              CV 1196 switched from open to closed
              CV 1783 switched from closed to open
              Trial  2: relative flow change = 0.952668
              Trial  3: relative flow change = 1.051532
              Trial  4: relative flow change = 0.937036
              Trial  5: relative flow change = 0.757675
              Trial  6: relative flow change = 0.534982
              Trial  7: relative flow change = 0.326272
              Trial  8: relative flow change = 0.176223
              Trial  9: relative flow change = 0.087478
              Trial 10: relative flow change = 0.040534
              Trial 11: relative flow change = 0.016608
              Trial 12: relative flow change = 0.004691
              Trial 13: relative flow change = 0.000477
     9:54:58: Balanced after 13 trials
     9:54:58: Tank D is emptying at 2.11 m
     9:54:58: Tank E is filling at 2.69 m
     9:54:58: CV 1196 changed from open to temporarily closed
     9:54:58: CV 1783 changed from temporarily closed to open
   
     9:55:08: Balancing the network:
              Trial  1: relative flow change = 0.000011
              CV 1196 switched from closed to open
              CV 1783 switched from open to closed
              Trial  2: relative flow change = 0.272365
              Trial  3: relative flow change = 0.200419
              CV 1154 switched from open to closed
              CV 1196 switched from open to closed
              CV 1210 switched from closed to open
              Trial  4: relative flow change = 0.145480
              Trial  5: relative flow change = 0.000001
              CV 1154 switched from closed to open
              Trial  6: relative flow change = 0.447020
              Trial  7: relative flow change = 0.420596
              CV 1154 switched from open to closed
              CV 1210 switched from open to closed
              Trial  8: relative flow change = 0.256669
              Trial  9: relative flow change = 0.000001
              CV 1154 switched from closed to open
              CV 1210 switched from closed to open
              Trial 10: relative flow change = 0.391332
              Trial 11: relative flow change = 0.352788
              Trial 12: relative flow change = 0.088294
              Trial 13: relative flow change = 0.006193
              Trial 14: relative flow change = 0.000388
              CV 1196 switched from closed to open
              CV 1210 switched from open to closed
              Trial 15: relative flow change = 0.044471
              Trial 16: relative flow change = 0.003616
              Trial 17: relative flow change = 0.000022
     9:55:08: Balanced after 17 trials
     9:55:08: Tank D is filling at 2.11 m
     9:55:08: Tank E is emptying at 2.69 m
     9:55:08: CV 1196 changed from temporarily closed to open
     9:55:08: CV 1783 changed from open to temporarily closed
   
     9:55:22: Balancing the network:
              Trial  1: relative flow change = 0.000006
              CV 1196 switched from open to closed
              CV 1783 switched from closed to open
              Trial  2: relative flow change = 0.952669
              Trial  3: relative flow change = 1.051534
              Trial  4: relative flow change = 0.937039
              Trial  5: relative flow change = 0.757679
              Trial  6: relative flow change = 0.534986
              Trial  7: relative flow change = 0.326275
              Trial  8: relative flow change = 0.176225
              Trial  9: relative flow change = 0.087479
              Trial 10: relative flow change = 0.040535
              Trial 11: relative flow change = 0.016608
              Trial 12: relative flow change = 0.004691
              Trial 13: relative flow change = 0.000477
     9:55:22: Balanced after 13 trials
     9:55:22: Tank D is emptying at 2.11 m
     9:55:22: Tank E is filling at 2.69 m
[...]
              CV 1196 switched from open to closed
              CV 1210 switched from closed to open
              Trial  4: relative flow change = 0.195217
              Trial  5: relative flow change = 0.000001
              CV 1154 switched from closed to open
              Trial  6: relative flow change = 0.486971
              Trial  7: relative flow change = 0.476568
              CV 1154 switched from open to closed
              CV 1210 switched from open to closed
              Trial  8: relative flow change = 0.311952
              Trial  9: relative flow change = 0.000001
              CV 1154 switched from closed to open
              CV 1210 switched from closed to open
              Trial 10: relative flow change = 0.455680
              Trial 11: relative flow change = 0.435260
              Trial 12: relative flow change = 0.127312
              Trial 13: relative flow change = 0.011978
              Trial 14: relative flow change = 0.000470
              CV 1196 switched from closed to open
              CV 1210 switched from open to closed
              Trial 15: relative flow change = 0.053717
              Trial 16: relative flow change = 0.004821
              Trial 17: relative flow change = 0.000036
    22:15:23: Balanced after 17 trials
    22:15:23: Tank D is filling at 2.11 m
    22:15:23: Tank E is emptying at 2.69 m
    22:15:23: CV 1196 changed from temporarily closed to open
    22:15:23: CV 1783 changed from open to temporarily closed
   
    22:15:30: Balancing the network:
              Trial  1: relative flow change = 0.000005
              CV 1196 switched from open to closed
              Pipe 1879 switched from open to closed
              Pipe p2 switched from open to closed
              Trial  2: relative flow change = 11.546162
              Trial  3: relative flow change = 0.000040
    22:15:30: Balanced after 3 trials
    22:15:30: Tank A is emptying at 3.37 m
    22:15:30: Tank D is emptying at 2.11 m
    22:15:30: CV 1196 changed from open to temporarily closed
    22:15:30: Pipe 1879 changed from open to temporarily closed
    22:15:30: Pipe p2 changed from open to temporarily closed
   
    23:00:00: Balancing the network:
              Trial  1: relative flow change = 0.976937
              Trial  2: relative flow change = 1.367249
              CV 1196 switched from closed to open
              CV 1653 switched from open to closed
              CV 1783 switched from closed to open
              Pipe 1879 switched from closed to open
              Pipe p2 switched from closed to open
              Trial  3: relative flow change = 0.978405
              Trial  4: relative flow change = 1.098470
              CV 1154 switched from open to closed
              CV 1196 switched from open to closed
              CV 1210 switched from closed to open
              CV 1653 switched from closed to open
              Trial  5: relative flow change = 1.016487
              Trial  6: relative flow change = 0.869791
              CV 1154 switched from closed to open
              CV 1653 switched from open to closed
              Trial  7: relative flow change = 0.698372
              Trial  8: relative flow change = 0.427304
              CV 1196 switched from closed to open
              CV 1210 switched from open to closed
              CV 1653 switched from closed to open
              Trial  9: relative flow change = 0.326470
              Trial 10: relative flow change = 0.195274
              CV 1653 switched from open to closed
              Trial 11: relative flow change = 0.123278
              Trial 12: relative flow change = 0.025484
              Trial 13: relative flow change = 0.009306
              Trial 14: relative flow change = 0.001877
              Trial 15: relative flow change = 0.000087
              CV 1653 switched from closed to open
              Trial 16: relative flow change = 0.138774
              Trial 17: relative flow change = 0.086610
              Trial 18: relative flow change = 0.014568
              Trial 19: relative flow change = 0.001482
              Trial 20: relative flow change = 0.000007
    23:00:00: Balanced after 20 trials
    23:00:00: Tank C is filling at 1.83 m
    23:00:00: Tank D is filling at 2.07 m
    23:00:00: Tank B is filling at 3.19 m
    23:00:00: Tank E is filling at 2.66 m
    23:00:00: CV 1196 changed from temporarily closed to open
    23:00:00: CV 1783 changed from temporarily closed to open
    23:00:00: Pipe 1879 changed from temporarily closed to open
    23:00:00: Pipe p2 changed from temporarily closed to open
    23:00:00: Pump 5C changed from closed to open
    23:00:00: Pump 4B changed from closed to open
   
    23:12:18: Balancing the network:
              Trial  1: relative flow change = 0.002345
              Trial  2: relative flow change = 0.000005
              CV 1783 switched from open to closed
              Trial  3: relative flow change = 0.016436
              Trial  4: relative flow change = 0.000000
    23:12:18: Balanced after 4 trials
    23:12:18: Tank E is emptying at 2.69 m
    23:12:18: CV 1783 changed from open to temporarily closed
   
    23:14:36: Balancing the network:
              Trial  1: relative flow change = 0.000443
              CV 1196 switched from open to closed
              CV 1783 switched from closed to open
              Trial  2: relative flow change = 0.966241
              Trial  3: relative flow change = 1.085079
              Trial  4: relative flow change = 0.996729
              Trial  5: relative flow change = 0.846836
              Trial  6: relative flow change = 0.638171
              Trial  7: relative flow change = 0.415486
              Trial  8: relative flow change = 0.236069
              Trial  9: relative flow change = 0.121360
              Trial 10: relative flow change = 0.058227
              Trial 11: relative flow change = 0.025870
              Trial 12: relative flow change = 0.009461
              Trial 13: relative flow change = 0.001908
              Trial 14: relative flow change = 0.000089
    23:14:36: Balanced after 14 trials
    23:14:36: Tank A is filling at 3.31 m
    23:14:36: Tank D is emptying at 2.11 m
    23:14:36: Tank E is filling at 2.69 m
    23:14:36: CV 1196 changed from open to temporarily closed
    23:14:36: CV 1783 changed from temporarily closed to open
   
    23:15:24: Balancing the network:
              Trial  1: relative flow change = 0.000135
              CV 1196 switched from closed to open
              CV 1783 switched from open to closed
              Trial  2: relative flow change = 0.299483
              Trial  3: relative flow change = 0.226814
              CV 1154 switched from open to closed
              CV 1196 switched from open to closed
              CV 1210 switched from closed to open
              Trial  4: relative flow change = 0.154217
              Trial  5: relative flow change = 0.000143
              CV 1154 switched from closed to open
              Trial  6: relative flow change = 0.436316
              Trial  7: relative flow change = 0.406844
              CV 1154 switched from open to closed
              CV 1210 switched from open to closed
              Trial  8: relative flow change = 0.252275
              Trial  9: relative flow change = 0.000221
              CV 1154 switched from closed to open
              CV 1210 switched from closed to open
              Trial 10: relative flow change = 0.400632
              Trial 11: relative flow change = 0.363706
              Trial 12: relative flow change = 0.099930
              Trial 13: relative flow change = 0.008515
              Trial 14: relative flow change = 0.000408
              CV 1196 switched from closed to open
              CV 1210 switched from open to closed
              Trial 15: relative flow change = 0.045112
              Trial 16: relative flow change = 0.003963
              Trial 17: relative flow change = 0.000028
    23:15:24: Balanced after 17 trials
    23:15:24: Tank A is emptying at 3.31 m
    23:15:24: Tank D is filling at 2.11 m
    23:15:24: Tank E is emptying at 2.69 m
    23:15:24: CV 1196 changed from temporarily closed to open
    23:15:24: CV 1783 changed from open to temporarily closed
   
    23:15:56: Balancing the network:
              Trial  1: relative flow change = 0.000102
              CV 1196 switched from open to closed
              CV 1783 switched from closed to open
              Trial  2: relative flow change = 0.966243
              Trial  3: relative flow change = 1.085083
              Trial  4: relative flow change = 0.996736
              Trial  5: relative flow change = 0.846848
              Trial  6: relative flow change = 0.638185
              Trial  7: relative flow change = 0.415498
              Trial  8: relative flow change = 0.236078
              Trial  9: relative flow change = 0.121365
              Trial 10: relative flow change = 0.058230
              Trial 11: relative flow change = 0.025871
              Trial 12: relative flow change = 0.009461
              Trial 13: relative flow change = 0.001908
              Trial 14: relative flow change = 0.000089
    23:15:56: Balanced after 14 trials
    23:15:56: Tank A is filling at 3.31 m
    23:15:56: Tank D is emptying at 2.11 m
    23:15:56: Tank E is filling at 2.69 m
    23:15:56: CV 1196 changed from open to temporarily closed
    23:15:56: CV 1783 changed from temporarily closed to open
   
    23:16:07: Balancing the network:
              Trial  1: relative flow change = 0.000031
              CV 1196 switched from closed to open
              CV 1783 switched from open to closed
              Trial  2: relative flow change = 0.299480
              Trial  3: relative flow change = 0.226811
              CV 1154 switched from open to closed
              CV 1196 switched from open to closed
              CV 1210 switched from closed to open
              Trial  4: relative flow change = 0.154215
              Trial  5: relative flow change = 0.000143
              CV 1154 switched from closed to open
              Trial  6: relative flow change = 0.436312
              Trial  7: relative flow change = 0.406841
              CV 1154 switched from open to closed
              CV 1210 switched from open to closed
              Trial  8: relative flow change = 0.252269
              Trial  9: relative flow change = 0.000221
              CV 1154 switched from closed to open
              CV 1210 switched from closed to open
              Trial 10: relative flow change = 0.400629
              Trial 11: relative flow change = 0.363702
              Trial 12: relative flow change = 0.099925
              Trial 13: relative flow change = 0.008514
              Trial 14: relative flow change = 0.000408
              CV 1196 switched from closed to open
              CV 1210 switched from open to closed
              Trial 15: relative flow change = 0.045112
              Trial 16: relative flow change = 0.003963
              Trial 17: relative flow change = 0.000028
    23:16:07: Balanced after 17 trials
    23:16:07: Tank A is emptying at 3.31 m
    23:16:07: Tank D is filling at 2.11 m
    23:16:07: Tank E is emptying at 2.69 m
    23:16:07: CV 1196 changed from temporarily closed to open
    23:16:07: CV 1783 changed from open to temporarily closed
   
    23:16:14: Balancing the network:
              Trial  1: relative flow change = 0.000022
              CV 1196 switched from open to closed
              Trial  2: relative flow change = 0.067874
              Trial  3: relative flow change = 0.000031
    23:16:14: Balanced after 3 trials
    23:16:14: Tank A is filling at 3.31 m
    23:16:14: Tank D is emptying at 2.11 m
    23:16:14: CV 1196 changed from open to temporarily closed
   
    23:23:14: Balancing the network:
              Trial  1: relative flow change = 0.001186
              Trial  2: relative flow change = 0.000001
              CV 1196 switched from closed to open
              Pipe 1740 switched from open to closed
              CV 1783 switched from closed to open
              Trial  3: relative flow change = 0.966908
              Trial  4: relative flow change = 1.096792
              CV 1154 switched from open to closed
              CV 1196 switched from open to closed
              CV 1210 switched from closed to open
              Trial  5: relative flow change = 1.027053
              Trial  6: relative flow change = 0.858993
              CV 1154 switched from closed to open
              Trial  7: relative flow change = 0.679286
              Trial  8: relative flow change = 0.426429
              CV 1196 switched from closed to open
              CV 1210 switched from open to closed
              Trial  9: relative flow change = 0.238066
              Trial 10: relative flow change = 0.123037
              Trial 11: relative flow change = 0.057182
              Trial 12: relative flow change = 0.025381
              Trial 13: relative flow change = 0.009280
              Trial 14: relative flow change = 0.001872
              Trial 15: relative flow change = 0.000087
    23:23:14: Balanced after 15 trials
    23:23:14: Tank C is closed at 2.00 m
    23:23:14: Tank A is emptying at 3.31 m
    23:23:14: Tank D is filling at 2.10 m
    23:23:14: Tank E is filling at 2.68 m
    23:23:14: CV 1196 changed from temporarily closed to open
    23:23:14: Pipe 1740 changed from open to temporarily closed
    23:23:14: CV 1783 changed from temporarily closed to open
   
    23:25:43: Balancing the network:
              Trial  1: relative flow change = 0.000431
              CV 1783 switched from open to closed
              Trial  2: relative flow change = 0.017212
              Trial  3: relative flow change = 0.000000
    23:25:43: Balanced after 3 trials
    23:25:43: Tank E is emptying at 2.69 m
    23:25:43: CV 1783 changed from open to temporarily closed
   
    23:26:09: Balancing the network:
              Trial  1: relative flow change = 0.000077
              CV 1196 switched from open to closed
              CV 1783 switched from closed to open
              Trial  2: relative flow change = 0.967935
              Trial  3: relative flow change = 1.089042
              Trial  4: relative flow change = 1.004028
              Trial  5: relative flow change = 0.858359
              Trial  6: relative flow change = 0.652521
              Trial  7: relative flow change = 0.428835
              Trial  8: relative flow change = 0.245516
              Trial  9: relative flow change = 0.126832
              Trial 10: relative flow change = 0.061013
              Trial 11: relative flow change = 0.027141
              Trial 12: relative flow change = 0.009930
              Trial 13: relative flow change = 0.002003
              Trial 14: relative flow change = 0.000093
    23:26:09: Balanced after 14 trials
    23:26:09: Tank A is filling at 3.31 m
    23:26:09: Tank D is emptying at 2.11 m
    23:26:09: Tank E is filling at 2.69 m
    23:26:09: CV 1196 changed from open to temporarily closed
    23:26:09: CV 1783 changed from temporarily closed to open
   
    23:26:18: Balancing the network:
              Trial  1: relative flow change = 0.000024
              CV 1196 switched from closed to open
              CV 1783 switched from open to closed
              Trial  2: relative flow change = 0.313009
              Trial  3: relative flow change = 0.239809
              CV 1154 switched from open to closed
              CV 1196 switched from open to closed
              CV 1210 switched from closed to open
              Trial  4: relative flow change = 0.164352
              Trial  5: relative flow change = 0.000001
              CV 1154 switched from closed to open
              Trial  6: relative flow change = 0.453418
              Trial  7: relative flow change = 0.429683
              CV 1154 switched from open to closed
              CV 1210 switched from open to closed
              Trial  8: relative flow change = 0.271007
              Trial  9: relative flow change = 0.000001
              CV 1154 switched from closed to open
              CV 1210 switched from closed to open
              Trial 10: relative flow change = 0.416789
              Trial 11: relative flow change = 0.384190
              Trial 12: relative flow change = 0.107341
              Trial 13: relative flow change = 0.009414
              Trial 14: relative flow change = 0.000412
              CV 1196 switched from closed to open
              CV 1210 switched from open to closed
              Trial 15: relative flow change = 0.047344
              Trial 16: relative flow change = 0.004165
              Trial 17: relative flow change = 0.000030
    23:26:18: Balanced after 17 trials
    23:26:18: Tank A is emptying at 3.31 m
    23:26:18: Tank D is filling at 2.11 m
    23:26:18: Tank E is emptying at 2.69 m
    23:26:18: CV 1196 changed from temporarily closed to open
    23:26:18: CV 1783 changed from open to temporarily closed
   
    23:26:24: Balancing the network:
              Trial  1: relative flow change = 0.000018
              CV 1196 switched from open to closed
              Trial  2: relative flow change = 0.071390
              Trial  3: relative flow change = 0.000001
    23:26:24: Balanced after 3 trials
    23:26:24: Tank A is filling at 3.31 m
    23:26:24: Tank D is emptying at 2.11 m
    23:26:24: CV 1196 changed from open to temporarily closed
   
    23:58:37: Balancing the network:
              Trial  1: relative flow change = 0.005249
              Trial  2: relative flow change = 0.000023
              CV 1196 switched from closed to open
              Pipe 1304 switched from open to closed
              CV 1783 switched from closed to open
              Trial  3: relative flow change = 0.977352
              Trial  4: relative flow change = 1.103903
              CV 1154 switched from open to closed
              CV 1196 switched from open to closed
              CV 1210 switched from closed to open
              Trial  5: relative flow change = 1.040519
              Trial  6: relative flow change = 0.879686
              CV 1154 switched from closed to open
              Trial  7: relative flow change = 0.706322
              Trial  8: relative flow change = 0.450712
              CV 1196 switched from closed to open
              CV 1210 switched from open to closed
              Trial  9: relative flow change = 0.254635
              Trial 10: relative flow change = 0.132756
              Trial 11: relative flow change = 0.061976
              Trial 12: relative flow change = 0.027567
              Trial 13: relative flow change = 0.010088
              Trial 14: relative flow change = 0.002035
              Trial 15: relative flow change = 0.000095
    23:58:37: Balanced after 15 trials
    23:58:37: Tank D is filling at 2.07 m
    23:58:37: Tank B is emptying at 3.65 m
    23:58:37: Tank E is filling at 2.66 m
    23:58:37: CV 1196 changed from temporarily closed to open
    23:58:37: Pipe 1304 changed from open to temporarily closed
    23:58:37: CV 1783 changed from temporarily closed to open
   
    24:00:00: Balancing the network:
              Trial  1: relative flow change = 0.080200
              Trial  2: relative flow change = 0.000210
              Pipe 1304 switched from closed to open
              Pipe 1740 switched from closed to open
              Trial  3: relative flow change = 0.006083
              Trial  4: relative flow change = 0.000000
    24:00:00: Balanced after 4 trials
    24:00:00: Tank C is emptying at 2.00 m
    24:00:00: Pipe 1304 changed from temporarily closed to open
    24:00:00: Pipe 1740 changed from temporarily closed to open
    24:00:00: Pump 5C changed from open to closed
    24:00:00: Pump 4B changed from open to closed
   
  Analysis ended Wed Aug  5 15:43:17 2020
